87
0 1 2_3FOD.xyz
  N   3.98458748494874     12.10972087082696     -2.97340056661097
  H   5.03171239921926     12.10100847641122     -2.99010629622120
  H   3.65471121590076     12.00291601385612     -3.95817253808574
  H   3.66577673554401     11.27831370754372     -2.42972830322116
  C   3.50722651589256     13.37751808785257     -2.35514679296591
  H   2.41772769986719     13.35618065539874     -2.44002420269596
  C   3.91596946582774     13.43870154117145     -0.89179181845730
  H   4.99830098987722     13.51611347779928     -0.80152112411551
  H   3.48140363895011     14.33391033677947     -0.44829482502366
  H   3.55727126640423     12.57633946896834     -0.33523383639720
  C   4.07732897037590     14.56729954422925     -3.11707347602667
  O   5.27285948116342     14.85199399853564     -3.02809108743748
  N   3.21722680417722     15.25036642865323     -3.86860384232251
  H   2.21910398900015     15.10952508310922     -3.79122906070949
  C   3.62416779606747     16.38254212850367     -4.69708813294497
  H   4.70985158342941     16.43369814590766     -4.64392633489550
  C   3.18774574717522     16.18428325994460     -6.16515326195405
  H   2.11893058196757     15.99990459742521     -6.16389803340079
  C   3.46236771918119     17.44023177628929     -6.98763797505571
  H   4.52274264306942     17.66607031198413     -7.00206703914699
  H   3.13339386530399     17.29752279705493     -8.00901888986019
  H   2.93548293273759     18.30082503715584     -6.59252600628639
  C   3.91289744312003     14.98300086611985     -6.77495701744531
  H   4.97783261745919     15.18800087360045     -6.77392793226410
  H   3.76253924046165     14.12570605860508     -6.13303392292579
  C   3.46303673505396     14.64000074989842     -8.17753652377416
  H   3.73668482164645     15.41704113142769     -8.88122236493673
  H   3.92547424258528     13.71847168000813     -8.51371553246046
  H   2.38688539008493     14.51407102960235     -8.22346301574732
  C   3.00370589789242     17.66968959608679     -4.16450627790309
  O   1.80170989034284     17.71949214670581     -3.90899052567704
  N   3.82982812849133     18.70004250493225     -3.99284397042158
  H   4.81614964333031     18.62078674128039     -4.19170339632318
  C   3.35484054416418     20.02586056419182     -3.59983217621833
  H   2.27374487046170     20.00613685491426     -3.71867085460124
  C   3.70610767985562     20.31294629135798     -2.13409475412051
  H   3.34838444218690     19.45928604979789     -1.56960186810386
  H   4.78734880056724     20.31771606639661     -2.05153181430434
  C   3.15326459447521     21.58678236742767     -1.47369853244289
  H   3.26745331420312     21.43958512153365     -0.40613383404770
  C   3.95122595795331     22.82061309880746     -1.86727239020296
  H   3.79171680865938     23.07896963569237     -2.90568732765389
  H   3.64317256859338     23.67330476602483     -1.27207453371407
  H   5.01292046532862     22.66607167316160     -1.71598381387104
  C   1.67315933370952     21.78659568790329     -1.77994852061803
  H   1.10231110369709     20.88825797409042     -1.57678302449547
  H   1.26902820303895     22.59148345180981     -1.17621351964807
  H   1.52755852241767     22.05990972390820     -2.81681848047122
  C   3.97688175072916     21.07908124010731     -4.51260155968566
  O   5.19973053383906     21.18005302177154     -4.60053078115022
  N   3.12583623132726     21.84447570624327     -5.19338481416582
  H   2.13180509251697     21.78202878875931     -5.03392603383296
  C   3.56237956460711     22.93250477730475     -6.06835319330188
  H   4.64952779740464     22.96670940222865     -6.01056594911423
  C   3.12983781882075     22.66435463312851     -7.51306982236652
  H   3.69094347343066     21.81014352735776     -7.90135408527552
  H   2.06679360997351     22.39516801396283     -7.51678912883111
  O   3.40296025328595     23.77521389818067     -8.35494144242802
  H   2.74713238574663     24.48303391912875     -8.20505908880328
  C   2.95841200289376     24.24347042568275     -5.58469602689824
  O   1.75355016514344     24.32119275200677     -5.34633455583331
  N   3.79971110173979     25.26179222658322     -5.42681462772873
  H   4.78070425563476     25.16103380262718     -5.64212911691992
  C   3.34189104273320     26.59756978308743     -5.05065759556246
  H   2.27474186563000     26.64127181283204     -5.26382441989935
  C   3.55391999792086     26.84051209686212     -3.55626515668768
  H   2.99028419345178     26.09734223979247     -2.98703855837945
  H   4.61834204977865     26.71260129464624     -3.32519103461037
  O   3.07323134123985     28.12023620006777     -3.18211727066708
  H   3.57495009404155     28.80926479054538     -3.65912873465932
  C   4.09091360916714     27.64244769653754     -5.86898048013747
  O   5.29566532604067     27.82654578546921     -5.69145245309587
  N   3.37346869060757     28.31514500987111     -6.76789933901437
  H   2.36350712660531     28.35019051190322     -6.72123201985354
  C   3.96933922536738     29.31442370623614     -7.65572161842139
  H   4.98794164899816     29.47588584076581     -7.31446898363774
  C   4.01648465071249     28.81811296895897     -9.11914533068020
  H   4.59782218161266     29.55954384155145     -9.67778417195879
  C   4.69719234245287     27.45702126772692     -9.20770842476539
  H   4.14590314333424     26.72737506282896     -8.62999692976450
  H   4.74695711487068     27.11286496222749    -10.23431962406370
  H   5.70364610227184     27.52123125497704     -8.81045256321084
  O   2.68843950576735     28.72623667543265     -9.64946206866699
  H   2.16861838601103     29.46757220343731     -9.27702959415265
  C   3.20011065069942     30.63018802854648     -7.60294234770689
  O   2.02489563458378     30.67552862226616     -7.23610329024778
  O   3.74365725314735     31.68582375767206     -7.92854839559310
